6

C             -0.048511926593         0.662383625654        -0.000000000000
O             -0.030989080849        -0.735834725576        -0.000000000000
H             -1.083991727354         0.971838841286        -0.000000000001
H              0.432417220588         1.073550365844         0.883414146957
H              0.432417220588         1.073550365843        -0.883414146958
H              0.856767293595        -1.047056473127        -0.000000000000
