10

S              0.187618207854        -0.000154669786        -0.424614153972
O              1.392530250454         0.016357873626         0.436197498492
C             -0.855144757410         1.329310035784         0.143023726985
C             -0.799606570456        -1.381666481410         0.117111116223
H             -0.340001270021         2.254604454701        -0.074607534192
H             -1.018263024110         1.229769542979         1.208014070123
H             -1.792091952238         1.294615297561        -0.396866139317
H             -1.737680532889        -1.374614568820        -0.421901705602
H             -0.965772158536        -1.309557253883         1.183826063322
H             -0.247488201296        -2.280864236417        -0.118482876698
