6

C              1.183223357834         0.000123444139        -0.000097817403
C             -0.280809096499        -0.000355209959         0.000210102784
H              1.539105564885        -0.161789901194         1.007491631420
H              1.538397530004         0.953950587825        -0.363634735287
H              1.538945312915        -0.791376064599        -0.644367560878
N             -1.408992669029        -0.000674856212         0.000405379364
