10

C              0.000000058047        -0.000058274829         0.180127275743
O              0.000000207707         0.000454528779         1.375586328613
C             -0.000001100210         1.281182846817        -0.610243109698
C              0.000001045640        -1.281270344473        -0.610416029558
H             -0.000299364522         2.134524307874         0.052162297709
H              0.000299080058        -2.134599259645         0.051988360368
H              0.874397114578         1.311520414381        -1.251361000942
H             -0.874036906741         1.311270413341        -1.251861609276
H             -0.874385688054        -1.311637146723        -1.251561081084
H              0.874025553493        -1.311387485495        -1.252061432134
