10

S              0.181634199266        -0.000555836284        -0.431345637845
O              1.408695989259         0.016102550109         0.452772418671
C             -0.857950134524         1.340866810824         0.142069032874
C             -0.802624800596        -1.393252687879         0.116468979344
H             -0.339829662077         2.263902726843        -0.080429501167
H             -1.015371683417         1.239440828208         1.208366879421
H             -1.796668946870         1.304225640790        -0.396211057973
H             -1.742837043698        -1.383631569815        -0.420376691562
H             -0.962500232558        -1.318893263460         1.184620098100
H             -0.248447692731        -2.290405205081        -0.124234454904
