8

H       2.939361     -0.438836      0.000000
C       1.911908     -0.172790      0.000000
C       0.729557      0.116934      0.000000
C      -0.643260      0.497947      0.000000
C      -1.654511     -0.381464      0.000000
H      -0.854420      1.559849      0.000000
H      -1.468578     -1.445519      0.000000
H      -2.678524     -0.039253      0.000000
