8

C       1.139642     -0.138022     -0.000002
N      -0.138552      0.549741     -0.000003
C      -1.173720     -0.188193      0.000018
H       1.705850      0.171572      0.876402
H       1.705875      0.171601     -0.876379
H       1.043493     -1.229318     -0.000019
H      -2.153154      0.277025     -0.000050
H      -1.127729     -1.281771     -0.000032
