10

C       1.199982     -0.225643     -0.020334
N      -0.000001      0.577358      0.152521
C      -1.199981     -0.225643     -0.020335
H       1.231085     -0.775878     -0.970397
H       2.082422      0.407316      0.042114
H       1.257455     -0.956642      0.785562
H       0.000001      1.316620     -0.538196
H      -1.257432     -0.956667      0.785539
H      -1.231103     -0.775849     -0.970412
H      -2.082425      0.407308      0.042155
