7

N       1.197221     -0.120403      0.000000
N      -0.158310      0.462872      0.000000
O      -1.159668     -0.381717      0.000000
H       1.140102     -0.754861      0.795413
H       1.140102     -0.754861     -0.795413
H      -0.137618      1.083087     -0.821242
H      -0.137618      1.083087      0.821242
