8

H      -0.200644      1.173201     -0.885614
C      -0.108692      0.546249     -0.000001
C       1.187180     -0.222330     -0.000001
H       1.256093     -0.852018      0.883534
F      -1.179001     -0.339358      0.000000
H      -0.200638      1.173199      0.885614
H       2.029101      0.468257      0.000069
H       1.256163     -0.851929     -0.883593
